miqcp/testcases/nesta_case57_ieee__sad.m
%%%%%%%%%%%%%%%%%%%%%%%%%%%%%%%%%%%%%%%%%%%%%%%%%%%%%%%%%%%%%%%%%%%%%%%%%%%
%%%%                                                                  %%%%%
%%%%      NICTA Energy System Test Case Archive (NESTA) - v0.7.0      %%%%%
%%%%           Optimal Power Flow - Small Angle Difference            %%%%%
%%%%                         05 - June - 2017                         %%%%%
%%%%                                                                  %%%%%
%%%%%%%%%%%%%%%%%%%%%%%%%%%%%%%%%%%%%%%%%%%%%%%%%%%%%%%%%%%%%%%%%%%%%%%%%%%
function mpc = nesta_case57_ieee__sad
mpc.version = '2';
mpc.baseMVA = 100.0;

%% bus data
%	bus_i	type	Pd	Qd	Gs	Bs	area	Vm	Va	baseKV	zone	Vmax	Vmin
mpc.bus = [
	1	 3	 55.0	 17.0	 0.0	 0.0	 1	    1.02048	   -0.00000	 0.0	 1	    1.06000	    0.94000;
	2	 2	 3.0	 88.0	 0.0	 0.0	 1	    1.00983	   -0.88821	 0.0	 1	    1.06000	    0.94000;
	3	 2	 41.0	 21.0	 0.0	 0.0	 1	    1.00023	   -3.90593	 0.0	 1	    1.06000	    0.94000;
	4	 1	 0.0	 0.0	 0.0	 0.0	 1	    0.99642	   -5.15643	 0.0	 1	    1.06000	    0.94000;
	5	 1	 13.0	 4.0	 0.0	 0.0	 1	    0.99282	   -6.26487	 0.0	 1	    1.06000	    0.94000;
	6	 2	 75.0	 2.0	 0.0	 0.0	 1	    0.99651	   -6.35719	 0.0	 1	    1.06000	    0.94000;
	7	 1	 0.0	 0.0	 0.0	 0.0	 1	    0.99584	   -5.16437	 0.0	 1	    1.06000	    0.94000;
	8	 2	 150.0	 22.0	 0.0	 0.0	 1	    1.01478	   -2.15630	 0.0	 1	    1.06000	    0.94000;
	9	 2	 121.0	 26.0	 0.0	 0.0	 1	    0.98527	   -5.66347	 0.0	 1	    1.06000	    0.94000;
	10	 1	 5.0	 2.0	 0.0	 0.0	 1	    0.98337	   -5.58965	 0.0	 1	    1.06000	    0.94000;
	11	 1	 0.0	 0.0	 0.0	 0.0	 1	    0.97543	   -5.87667	 0.0	 1	    1.06000	    0.94000;
	12	 2	 377.0	 24.0	 0.0	 0.0	 1	    1.00399	   -2.75600	 0.0	 1	    1.06000	    0.94000;
	13	 1	 18.0	 2.3	 0.0	 0.0	 1	    0.97718	   -5.11797	 0.0	 1	    1.06000	    0.94000;
	14	 1	 10.5	 5.3	 0.0	 0.0	 1	    0.97021	   -5.50276	 0.0	 1	    1.06000	    0.94000;
	15	 1	 22.0	 5.0	 0.0	 0.0	 1	    0.98924	   -4.42527	 0.0	 1	    1.06000	    0.94000;
	16	 1	 43.0	 3.0	 0.0	 0.0	 1	    1.00307	   -3.39318	 0.0	 1	    1.06000	    0.94000;
	17	 1	 42.0	 8.0	 0.0	 0.0	 1	    1.00464	   -2.58320	 0.0	 1	    1.06000	    0.94000;
	18	 1	 27.2	 9.8	 0.0	 10.0	 1	    1.01546	   -9.32095	 0.0	 1	    1.06000	    0.94000;
	19	 1	 3.3	 0.6	 0.0	 0.0	 1	    0.98207	  -10.24728	 0.0	 1	    1.06000	    0.94000;
	20	 1	 2.3	 1.0	 0.0	 0.0	 1	    0.97352	  -10.11483	 0.0	 1	    1.06000	    0.94000;
	21	 1	 0.0	 0.0	 0.0	 0.0	 1	    1.01067	   -9.27528	 0.0	 1	    1.06000	    0.94000;
	22	 1	 0.0	 0.0	 0.0	 0.0	 1	    1.01133	   -9.13586	 0.0	 1	    1.06000	    0.94000;
	23	 1	 6.3	 2.1	 0.0	 0.0	 1	    1.01010	   -9.22244	 0.0	 1	    1.06000	    0.94000;
	24	 1	 0.0	 0.0	 0.0	 0.0	 1	    1.00418	   -9.93708	 0.0	 1	    1.06000	    0.94000;
	25	 1	 6.3	 3.2	 0.0	 5.9	 1	    0.98689	  -14.71249	 0.0	 1	    1.06000	    0.94000;
	26	 1	 0.0	 0.0	 0.0	 0.0	 1	    0.96459	   -9.66973	 0.0	 1	    1.06000	    0.94000;
	27	 1	 9.3	 0.5	 0.0	 0.0	 1	    0.99021	   -8.64188	 0.0	 1	    1.06000	    0.94000;
	28	 1	 4.6	 2.3	 0.0	 0.0	 1	    1.00628	   -7.77902	 0.0	 1	    1.06000	    0.94000;
	29	 1	 17.0	 2.6	 0.0	 0.0	 1	    1.02025	   -7.17690	 0.0	 1	    1.06000	    0.94000;
	30	 1	 3.6	 1.8	 0.0	 0.0	 1	    0.96698	  -15.21885	 0.0	 1	    1.06000	    0.94000;
	31	 1	 5.8	 2.9	 0.0	 0.0	 1	    0.94000	  -15.78695	 0.0	 1	    1.06000	    0.94000;
	32	 1	 1.6	 0.8	 0.0	 0.0	 1	    0.95335	  -14.78199	 0.0	 1	    1.06000	    0.94000;
	33	 1	 3.8	 1.9	 0.0	 0.0	 1	    0.95107	  -14.82137	 0.0	 1	    1.06000	    0.94000;
	34	 1	 0.0	 0.0	 0.0	 0.0	 1	    0.96085	  -10.34229	 0.0	 1	    1.06000	    0.94000;
	35	 1	 6.0	 3.0	 0.0	 0.0	 1	    0.96780	  -10.08672	 0.0	 1	    1.06000	    0.94000;
	36	 1	 0.0	 0.0	 0.0	 0.0	 1	    0.97739	   -9.80627	 0.0	 1	    1.06000	    0.94000;
	37	 1	 0.0	 0.0	 0.0	 0.0	 1	    0.98634	   -9.61996	 0.0	 1	    1.06000	    0.94000;
	38	 1	 14.0	 7.0	 0.0	 0.0	 1	    1.01390	   -8.93323	 0.0	 1	    1.06000	    0.94000;
	39	 1	 0.0	 0.0	 0.0	 0.0	 1	    0.98432	   -9.65857	 0.0	 1	    1.06000	    0.94000;
	40	 1	 0.0	 0.0	 0.0	 0.0	 1	    0.97445	   -9.81875	 0.0	 1	    1.06000	    0.94000;
	41	 1	 6.3	 3.0	 0.0	 0.0	 1	    0.99806	   -9.86103	 0.0	 1	    1.06000	    0.94000;
	42	 1	 7.1	 4.4	 0.0	 0.0	 1	    0.96787	  -11.37990	 0.0	 1	    1.06000	    0.94000;
	43	 1	 2.0	 1.0	 0.0	 0.0	 1	    1.01116	   -7.06459	 0.0	 1	    1.06000	    0.94000;
	44	 1	 12.0	 1.8	 0.0	 0.0	 1	    1.01760	   -8.28194	 0.0	 1	    1.06000	    0.94000;
	45	 1	 0.0	 0.0	 0.0	 0.0	 1	    1.03567	   -6.16654	 0.0	 1	    1.06000	    0.94000;
	46	 1	 0.0	 0.0	 0.0	 0.0	 1	    1.06000	   -7.22912	 0.0	 1	    1.06000	    0.94000;
	47	 1	 29.7	 11.6	 0.0	 0.0	 1	    1.03380	   -8.58841	 0.0	 1	    1.06000	    0.94000;
	48	 1	 0.0	 0.0	 0.0	 0.0	 1	    1.02812	   -8.67564	 0.0	 1	    1.06000	    0.94000;
	49	 1	 18.0	 8.5	 0.0	 0.0	 1	    1.03716	   -8.58476	 0.0	 1	    1.06000	    0.94000;
	50	 1	 21.0	 10.5	 0.0	 0.0	 1	    1.02349	   -8.57108	 0.0	 1	    1.06000	    0.94000;
	51	 1	 18.0	 5.3	 0.0	 0.0	 1	    1.05143	   -6.85875	 0.0	 1	    1.06000	    0.94000;
	52	 1	 4.9	 2.2	 0.0	 0.0	 1	    0.99033	   -8.57271	 0.0	 1	    1.06000	    0.94000;
	53	 1	 20.0	 10.0	 0.0	 6.3	 1	    0.98069	   -9.15054	 0.0	 1	    1.06000	    0.94000;
	54	 1	 4.1	 1.4	 0.0	 0.0	 1	    1.00496	   -8.22033	 0.0	 1	    1.06000	    0.94000;
	55	 1	 6.8	 3.4	 0.0	 0.0	 1	    1.03830	   -6.96895	 0.0	 1	    1.06000	    0.94000;
	56	 1	 7.6	 2.2	 0.0	 0.0	 1	    0.96919	  -11.98094	 0.0	 1	    1.06000	    0.94000;
	57	 1	 6.7	 2.0	 0.0	 0.0	 1	    0.96542	  -12.54679	 0.0	 1	    1.06000	    0.94000;
];

%% generator data
%	bus	Pg	Qg	Qmax	Qmin	Vg	mBase	status	Pmax	Pmin	Pc1	Pc2	Qc1min	Qc1max	Qc2min	Qc2max	ramp_agc	ramp_10	ramp_30	ramp_q	apf
mpc.gen = [
	1	 282.0	 51.227	 141.0	 -140.0	 1.02048	 100.0	 1	 282.0	 0.0	 0.0	 0.0	 0.0	 0.0	 0.0	 0.0	 0.0	 0.0	 0.0	 0.0	 0.0;
	2	 0.0	 50.0	 50.0	 -17.0	 1.00983	 100.0	 1	 0.0	 0.0	 0.0	 0.0	 0.0	 0.0	 0.0	 0.0	 0.0	 0.0	 0.0	 0.0	 0.0;
	3	 61.0	 30.999	 31.0	 -10.0	 1.00023	 100.0	 1	 61.0	 0.0	 0.0	 0.0	 0.0	 0.0	 0.0	 0.0	 0.0	 0.0	 0.0	 0.0	 0.0;
	6	 0.0	 9.673	 25.0	 -8.0	 0.99651	 100.0	 1	 0.0	 0.0	 0.0	 0.0	 0.0	 0.0	 0.0	 0.0	 0.0	 0.0	 0.0	 0.0	 0.0;
	8	 399.272	 71.205	 200.0	 -140.0	 1.01478	 100.0	 1	 510.0	 0.0	 0.0	 0.0	 0.0	 0.0	 0.0	 0.0	 0.0	 0.0	 0.0	 0.0	 0.0;
	9	 0.0	 9.0	 9.0	 -3.0	 0.98527	 100.0	 1	 0.0	 0.0	 0.0	 0.0	 0.0	 0.0	 0.0	 0.0	 0.0	 0.0	 0.0	 0.0	 0.0;
	12	 524.0	 45.729	 155.0	 -150.0	 1.00399	 100.0	 1	 524.0	 0.0	 0.0	 0.0	 0.0	 0.0	 0.0	 0.0	 0.0	 0.0	 0.0	 0.0	 0.0;
];

%% generator cost data
%	2	startup	shutdown	n	c(n-1)	...	c0
mpc.gencost = [
	2	 0.0	 0.0	 3	   0.000000	   0.750694	   0.000000;
	2	 0.0	 0.0	 3	   0.000000	   0.000000	   0.000000;
	2	 0.0	 0.0	 3	   0.000000	   0.836961	   0.000000;
	2	 0.0	 0.0	 3	   0.000000	   0.000000	   0.000000;
	2	 0.0	 0.0	 3	   0.000000	   1.172038	   0.000000;
	2	 0.0	 0.0	 3	   0.000000	   0.000000	   0.000000;
	2	 0.0	 0.0	 3	   0.000000	   0.787329	   0.000000;
];

%% branch data
%	fbus	tbus	r	x	b	rateA	rateB	rateC	ratio	angle	status	angmin	angmax
mpc.branch = [
	1	 2	 0.0083	 0.028	 0.129	 1005.0	 1005.0	 1005.0	 0.0	 0.0	 1	 -4.889355	 4.889355;
	2	 3	 0.0298	 0.085	 0.0818	 326.0	 326.0	 326.0	 0.0	 0.0	 1	 -4.889355	 4.889355;
	3	 4	 0.0112	 0.0366	 0.038	 767.0	 767.0	 767.0	 0.0	 0.0	 1	 -4.889355	 4.889355;
	4	 5	 0.0625	 0.132	 0.0258	 201.0	 201.0	 201.0	 0.0	 0.0	 1	 -4.889355	 4.889355;
	4	 6	 0.043	 0.148	 0.0348	 191.0	 191.0	 191.0	 0.0	 0.0	 1	 -4.889355	 4.889355;
	6	 7	 0.02	 0.102	 0.0276	 283.0	 283.0	 283.0	 0.0	 0.0	 1	 -4.889355	 4.889355;
	6	 8	 0.0339	 0.173	 0.047	 167.0	 167.0	 167.0	 0.0	 0.0	 1	 -4.889355	 4.889355;
	8	 9	 0.0099	 0.0505	 0.0548	 570.0	 570.0	 570.0	 0.0	 0.0	 1	 -4.889355	 4.889355;
	9	 10	 0.0369	 0.1679	 0.044	 171.0	 171.0	 171.0	 0.0	 0.0	 1	 -4.889355	 4.889355;
	9	 11	 0.0258	 0.0848	 0.0218	 331.0	 331.0	 331.0	 0.0	 0.0	 1	 -4.889355	 4.889355;
	9	 12	 0.0648	 0.295	 0.0772	 98.0	 98.0	 98.0	 0.0	 0.0	 1	 -4.889355	 4.889355;
	9	 13	 0.0481	 0.158	 0.0406	 178.0	 178.0	 178.0	 0.0	 0.0	 1	 -4.889355	 4.889355;
	13	 14	 0.0132	 0.0434	 0.011	 647.0	 647.0	 647.0	 0.0	 0.0	 1	 -4.889355	 4.889355;
	13	 15	 0.0269	 0.0869	 0.023	 323.0	 323.0	 323.0	 0.0	 0.0	 1	 -4.889355	 4.889355;
	1	 15	 0.0178	 0.091	 0.0988	 317.0	 317.0	 317.0	 0.0	 0.0	 1	 -4.889355	 4.889355;
	1	 16	 0.0454	 0.206	 0.0546	 140.0	 140.0	 140.0	 0.0	 0.0	 1	 -4.889355	 4.889355;
	1	 17	 0.0238	 0.108	 0.0286	 266.0	 266.0	 266.0	 0.0	 0.0	 1	 -4.889355	 4.889355;
	3	 15	 0.0162	 0.053	 0.0544	 530.0	 530.0	 530.0	 0.0	 0.0	 1	 -4.889355	 4.889355;
	4	 18	 0.0	 0.555	 0.0	 53.0	 53.0	 53.0	 0.97	 0.0	 1	 -4.889355	 4.889355;
	4	 18	 0.0	 0.43	 0.0	 69.0	 69.0	 69.0	 0.978	 0.0	 1	 -4.889355	 4.889355;
	5	 6	 0.0302	 0.0641	 0.0124	 414.0	 414.0	 414.0	 0.0	 0.0	 1	 -4.889355	 4.889355;
	7	 8	 0.0139	 0.0712	 0.0194	 405.0	 405.0	 405.0	 0.0	 0.0	 1	 -4.889355	 4.889355;
	10	 12	 0.0277	 0.1262	 0.0328	 228.0	 228.0	 228.0	 0.0	 0.0	 1	 -4.889355	 4.889355;
	11	 13	 0.0223	 0.0732	 0.0188	 384.0	 384.0	 384.0	 0.0	 0.0	 1	 -4.889355	 4.889355;
	12	 13	 0.0178	 0.058	 0.0604	 484.0	 484.0	 484.0	 0.0	 0.0	 1	 -4.889355	 4.889355;
	12	 16	 0.018	 0.0813	 0.0216	 353.0	 353.0	 353.0	 0.0	 0.0	 1	 -4.889355	 4.889355;
	12	 17	 0.0397	 0.179	 0.0476	 160.0	 160.0	 160.0	 0.0	 0.0	 1	 -4.889355	 4.889355;
	14	 15	 0.0171	 0.0547	 0.0148	 512.0	 512.0	 512.0	 0.0	 0.0	 1	 -4.889355	 4.889355;
	18	 19	 0.461	 0.685	 0.0	 36.0	 36.0	 36.0	 0.0	 0.0	 1	 -4.889355	 4.889355;
	19	 20	 0.283	 0.434	 0.0	 57.0	 57.0	 57.0	 0.0	 0.0	 1	 -4.889355	 4.889355;
	21	 20	 0.0	 0.7767	 0.0	 38.0	 38.0	 38.0	 1.043	 0.0	 1	 -4.889355	 4.889355;
	21	 22	 0.0736	 0.117	 0.0	 213.0	 213.0	 213.0	 0.0	 0.0	 1	 -4.889355	 4.889355;
	22	 23	 0.0099	 0.0152	 0.0	 1617.0	 1617.0	 1617.0	 0.0	 0.0	 1	 -4.889355	 4.889355;
	23	 24	 0.166	 0.256	 0.0084	 97.0	 97.0	 97.0	 0.0	 0.0	 1	 -4.889355	 4.889355;
	24	 25	 0.0	 1.182	 0.0	 25.0	 25.0	 25.0	 1.0	 0.0	 1	 -4.889355	 4.889355;
	24	 25	 0.0	 1.23	 0.0	 24.0	 24.0	 24.0	 1.0	 0.0	 1	 -4.889355	 4.889355;
	24	 26	 0.0	 0.0473	 0.0	 621.0	 621.0	 621.0	 1.043	 0.0	 1	 -4.889355	 4.889355;
	26	 27	 0.165	 0.254	 0.0	 97.0	 97.0	 97.0	 0.0	 0.0	 1	 -4.889355	 4.889355;
	27	 28	 0.0618	 0.0954	 0.0	 259.0	 259.0	 259.0	 0.0	 0.0	 1	 -4.889355	 4.889355;
	28	 29	 0.0418	 0.0587	 0.0	 408.0	 408.0	 408.0	 0.0	 0.0	 1	 -4.889355	 4.889355;
	7	 29	 0.0	 0.0648	 0.0	 453.0	 453.0	 453.0	 0.967	 0.0	 1	 -4.889355	 4.889355;
	25	 30	 0.135	 0.202	 0.0	 121.0	 121.0	 121.0	 0.0	 0.0	 1	 -4.889355	 4.889355;
	30	 31	 0.326	 0.497	 0.0	 50.0	 50.0	 50.0	 0.0	 0.0	 1	 -4.889355	 4.889355;
	31	 32	 0.507	 0.755	 0.0	 33.0	 33.0	 33.0	 0.0	 0.0	 1	 -4.889355	 4.889355;
	32	 33	 0.0392	 0.036	 0.0	 552.0	 552.0	 552.0	 0.0	 0.0	 1	 -4.889355	 4.889355;
	34	 32	 0.0	 0.953	 0.0	 31.0	 31.0	 31.0	 0.975	 0.0	 1	 -4.889355	 4.889355;
	34	 35	 0.052	 0.078	 0.0032	 313.0	 313.0	 313.0	 0.0	 0.0	 1	 -4.889355	 4.889355;
	35	 36	 0.043	 0.0537	 0.0016	 427.0	 427.0	 427.0	 0.0	 0.0	 1	 -4.889355	 4.889355;
	36	 37	 0.029	 0.0366	 0.0	 629.0	 629.0	 629.0	 0.0	 0.0	 1	 -4.889355	 4.889355;
	37	 38	 0.0651	 0.1009	 0.002	 245.0	 245.0	 245.0	 0.0	 0.0	 1	 -4.889355	 4.889355;
	37	 39	 0.0239	 0.0379	 0.0	 655.0	 655.0	 655.0	 0.0	 0.0	 1	 -4.889355	 4.889355;
	36	 40	 0.03	 0.0466	 0.0	 530.0	 530.0	 530.0	 0.0	 0.0	 1	 -4.889355	 4.889355;
	22	 38	 0.0192	 0.0295	 0.0	 834.0	 834.0	 834.0	 0.0	 0.0	 1	 -4.889355	 4.889355;
	11	 41	 0.0	 0.749	 0.0	 40.0	 40.0	 40.0	 0.955	 0.0	 1	 -4.889355	 4.889355;
	41	 42	 0.207	 0.352	 0.0	 72.0	 72.0	 72.0	 0.0	 0.0	 1	 -4.889355	 4.889355;
	41	 43	 0.0	 0.412	 0.0	 72.0	 72.0	 72.0	 0.0	 0.0	 1	 -4.889355	 4.889355;
	38	 44	 0.0289	 0.0585	 0.002	 450.0	 450.0	 450.0	 0.0	 0.0	 1	 -4.889355	 4.889355;
	15	 45	 0.0	 0.1042	 0.0	 282.0	 282.0	 282.0	 0.955	 0.0	 1	 -4.889355	 4.889355;
	14	 46	 0.0	 0.0735	 0.0	 400.0	 400.0	 400.0	 0.9	 0.0	 1	 -4.889355	 4.889355;
	46	 47	 0.023	 0.068	 0.0032	 409.0	 409.0	 409.0	 0.0	 0.0	 1	 -4.889355	 4.889355;
	47	 48	 0.0182	 0.0233	 0.0	 993.0	 993.0	 993.0	 0.0	 0.0	 1	 -4.889355	 4.889355;
	48	 49	 0.0834	 0.129	 0.0048	 191.0	 191.0	 191.0	 0.0	 0.0	 1	 -4.889355	 4.889355;
	49	 50	 0.0801	 0.128	 0.0	 195.0	 195.0	 195.0	 0.0	 0.0	 1	 -4.889355	 4.889355;
	50	 51	 0.1386	 0.22	 0.0	 113.0	 113.0	 113.0	 0.0	 0.0	 1	 -4.889355	 4.889355;
	10	 51	 0.0	 0.0712	 0.0	 412.0	 412.0	 412.0	 0.93	 0.0	 1	 -4.889355	 4.889355;
	13	 49	 0.0	 0.191	 0.0	 154.0	 154.0	 154.0	 0.895	 0.0	 1	 -4.889355	 4.889355;
	29	 52	 0.1442	 0.187	 0.0	 125.0	 125.0	 125.0	 0.0	 0.0	 1	 -4.889355	 4.889355;
	52	 53	 0.0762	 0.0984	 0.0	 236.0	 236.0	 236.0	 0.0	 0.0	 1	 -4.889355	 4.889355;
	53	 54	 0.1878	 0.232	 0.0	 99.0	 99.0	 99.0	 0.0	 0.0	 1	 -4.889355	 4.889355;
	54	 55	 0.1732	 0.2265	 0.0	 103.0	 103.0	 103.0	 0.0	 0.0	 1	 -4.889355	 4.889355;
	11	 43	 0.0	 0.153	 0.0	 192.0	 192.0	 192.0	 0.958	 0.0	 1	 -4.889355	 4.889355;
	44	 45	 0.0624	 0.1242	 0.004	 212.0	 212.0	 212.0	 0.0	 0.0	 1	 -4.889355	 4.889355;
	40	 56	 0.0	 1.195	 0.0	 25.0	 25.0	 25.0	 0.958	 0.0	 1	 -4.889355	 4.889355;
	56	 41	 0.553	 0.549	 0.0	 38.0	 38.0	 38.0	 0.0	 0.0	 1	 -4.889355	 4.889355;
	56	 42	 0.2125	 0.354	 0.0	 72.0	 72.0	 72.0	 0.0	 0.0	 1	 -4.889355	 4.889355;
	39	 57	 0.0	 1.355	 0.0	 22.0	 22.0	 22.0	 0.98	 0.0	 1	 -4.889355	 4.889355;
	57	 56	 0.174	 0.26	 0.0	 94.0	 94.0	 94.0	 0.0	 0.0	 1	 -4.889355	 4.889355;
	38	 49	 0.115	 0.177	 0.003	 139.0	 139.0	 139.0	 0.0	 0.0	 1	 -4.889355	 4.889355;
	38	 48	 0.0312	 0.0482	 0.0	 511.0	 511.0	 511.0	 0.0	 0.0	 1	 -4.889355	 4.889355;
	9	 55	 0.0	 0.1205	 0.0	 244.0	 244.0	 244.0	 0.94	 0.0	 1	 -4.889355	 4.889355;
];

% INFO    : === Translation Options ===
% INFO    : Phase Angle Bound:           4.889355 (deg.)
% INFO    : AC OPF Solution File:        ./nesta_case57_ieee__sad.m.opf.sol
% INFO    : 
% INFO    : === Voltage Setpoint Replacement Notes ===
% INFO    : Bus 1	: V=1.02048, theta=-0.0 -> V=1.02048, theta=-0.0
% INFO    : Bus 2	: V=1.00983, theta=-0.88821 -> V=1.00983, theta=-0.88821
% INFO    : Bus 3	: V=1.00023, theta=-3.90593 -> V=1.00023, theta=-3.90593
% INFO    : Bus 4	: V=0.99642, theta=-5.15644 -> V=0.99642, theta=-5.15643
% INFO    : Bus 5	: V=0.99282, theta=-6.26487 -> V=0.99282, theta=-6.26487
% INFO    : Bus 6	: V=0.99651, theta=-6.35719 -> V=0.99651, theta=-6.35719
% INFO    : Bus 7	: V=0.99584, theta=-5.16438 -> V=0.99584, theta=-5.16437
% INFO    : Bus 8	: V=1.01478, theta=-2.1563 -> V=1.01478, theta=-2.1563
% INFO    : Bus 9	: V=0.98527, theta=-5.66347 -> V=0.98527, theta=-5.66347
% INFO    : Bus 10	: V=0.98337, theta=-5.58965 -> V=0.98337, theta=-5.58965
% INFO    : Bus 11	: V=0.97543, theta=-5.87668 -> V=0.97543, theta=-5.87667
% INFO    : Bus 12	: V=1.00399, theta=-2.756 -> V=1.00399, theta=-2.756
% INFO    : Bus 13	: V=0.97718, theta=-5.11798 -> V=0.97718, theta=-5.11797
% INFO    : Bus 14	: V=0.97021, theta=-5.50277 -> V=0.97021, theta=-5.50276
% INFO    : Bus 15	: V=0.98924, theta=-4.42527 -> V=0.98924, theta=-4.42527
% INFO    : Bus 16	: V=1.00307, theta=-3.39318 -> V=1.00307, theta=-3.39318
% INFO    : Bus 17	: V=1.00464, theta=-2.58321 -> V=1.00464, theta=-2.5832
% INFO    : Bus 18	: V=1.01546, theta=-9.32095 -> V=1.01546, theta=-9.32095
% INFO    : Bus 19	: V=0.98207, theta=-10.24728 -> V=0.98207, theta=-10.24728
% INFO    : Bus 20	: V=0.97352, theta=-10.11483 -> V=0.97352, theta=-10.11483
% INFO    : Bus 21	: V=1.01067, theta=-9.27529 -> V=1.01067, theta=-9.27528
% INFO    : Bus 22	: V=1.01133, theta=-9.13587 -> V=1.01133, theta=-9.13586
% INFO    : Bus 23	: V=1.0101, theta=-9.22244 -> V=1.0101, theta=-9.22244
% INFO    : Bus 24	: V=1.00418, theta=-9.93708 -> V=1.00418, theta=-9.93708
% INFO    : Bus 25	: V=0.98689, theta=-14.71249 -> V=0.98689, theta=-14.71249
% INFO    : Bus 26	: V=0.96459, theta=-9.66973 -> V=0.96459, theta=-9.66973
% INFO    : Bus 27	: V=0.99021, theta=-8.64188 -> V=0.99021, theta=-8.64188
% INFO    : Bus 28	: V=1.00628, theta=-7.77902 -> V=1.00628, theta=-7.77902
% INFO    : Bus 29	: V=1.02025, theta=-7.17691 -> V=1.02025, theta=-7.1769
% INFO    : Bus 30	: V=0.96698, theta=-15.21886 -> V=0.96698, theta=-15.21885
% INFO    : Bus 31	: V=0.94, theta=-15.78695 -> V=0.94, theta=-15.78695
% INFO    : Bus 32	: V=0.95335, theta=-14.78199 -> V=0.95335, theta=-14.78199
% INFO    : Bus 33	: V=0.95107, theta=-14.82137 -> V=0.95107, theta=-14.82137
% INFO    : Bus 34	: V=0.96085, theta=-10.34229 -> V=0.96085, theta=-10.34229
% INFO    : Bus 35	: V=0.9678, theta=-10.08672 -> V=0.9678, theta=-10.08672
% INFO    : Bus 36	: V=0.97739, theta=-9.80627 -> V=0.97739, theta=-9.80627
% INFO    : Bus 37	: V=0.98634, theta=-9.61997 -> V=0.98634, theta=-9.61996
% INFO    : Bus 38	: V=1.0139, theta=-8.93323 -> V=1.0139, theta=-8.93323
% INFO    : Bus 39	: V=0.98432, theta=-9.65857 -> V=0.98432, theta=-9.65857
% INFO    : Bus 40	: V=0.97445, theta=-9.81876 -> V=0.97445, theta=-9.81875
% INFO    : Bus 41	: V=0.99806, theta=-9.86103 -> V=0.99806, theta=-9.86103
% INFO    : Bus 42	: V=0.96787, theta=-11.3799 -> V=0.96787, theta=-11.3799
% INFO    : Bus 43	: V=1.01116, theta=-7.0646 -> V=1.01116, theta=-7.06459
% INFO    : Bus 44	: V=1.0176, theta=-8.28194 -> V=1.0176, theta=-8.28194
% INFO    : Bus 45	: V=1.03567, theta=-6.16654 -> V=1.03567, theta=-6.16654
% INFO    : Bus 46	: V=1.06, theta=-7.22912 -> V=1.06, theta=-7.22912
% INFO    : Bus 47	: V=1.0338, theta=-8.58841 -> V=1.0338, theta=-8.58841
% INFO    : Bus 48	: V=1.02812, theta=-8.67564 -> V=1.02812, theta=-8.67564
% INFO    : Bus 49	: V=1.03716, theta=-8.58476 -> V=1.03716, theta=-8.58476
% INFO    : Bus 50	: V=1.02349, theta=-8.57109 -> V=1.02349, theta=-8.57108
% INFO    : Bus 51	: V=1.05143, theta=-6.85875 -> V=1.05143, theta=-6.85875
% INFO    : Bus 52	: V=0.99033, theta=-8.57271 -> V=0.99033, theta=-8.57271
% INFO    : Bus 53	: V=0.98069, theta=-9.15054 -> V=0.98069, theta=-9.15054
% INFO    : Bus 54	: V=1.00496, theta=-8.22033 -> V=1.00496, theta=-8.22033
% INFO    : Bus 55	: V=1.0383, theta=-6.96895 -> V=1.0383, theta=-6.96895
% INFO    : Bus 56	: V=0.96919, theta=-11.98094 -> V=0.96919, theta=-11.98094
% INFO    : Bus 57	: V=0.96542, theta=-12.5468 -> V=0.96542, theta=-12.54679
% INFO    : 
% INFO    : === Generator Setpoint Replacement Notes ===
% INFO    : Gen at bus 1	: Pg=282.0, Qg=51.226 -> Pg=282.0, Qg=51.227
% INFO    : Gen at bus 1	: Vg=1.02048 -> Vg=1.02048
% INFO    : Gen at bus 2	: Pg=0.0, Qg=50.0 -> Pg=0.0, Qg=50.0
% INFO    : Gen at bus 2	: Vg=1.00983 -> Vg=1.00983
% INFO    : Gen at bus 3	: Pg=61.0, Qg=31.0 -> Pg=61.0, Qg=30.999
% INFO    : Gen at bus 3	: Vg=1.00023 -> Vg=1.00023
% INFO    : Gen at bus 6	: Pg=0.0, Qg=9.673 -> Pg=0.0, Qg=9.673
% INFO    : Gen at bus 6	: Vg=0.99651 -> Vg=0.99651
% INFO    : Gen at bus 8	: Pg=399.272, Qg=71.205 -> Pg=399.272, Qg=71.205
% INFO    : Gen at bus 8	: Vg=1.01478 -> Vg=1.01478
% INFO    : Gen at bus 9	: Pg=0.0, Qg=9.0 -> Pg=0.0, Qg=9.0
% INFO    : Gen at bus 9	: Vg=0.98527 -> Vg=0.98527
% INFO    : Gen at bus 12	: Pg=524.0, Qg=45.728 -> Pg=524.0, Qg=45.729
% INFO    : Gen at bus 12	: Vg=1.00399 -> Vg=1.00399
% INFO    : 
% INFO    : === Writing Matpower Case File Notes ===
